/*--------------------------------*- C++ -*----------------------------------*\
| =========                 |                                                 |
| \\      /  F ield         | OpenFOAM: The Open Source CFD Toolbox           |
|  \\    /   O peration     | Version:  2.2.2                                 |
|   \\  /    A nd           | Web:      www.OpenFOAM.org                      |
|    \\/     M anipulation  |                                                 |
\*---------------------------------------------------------------------------*/
FoamFile
{
    version     2.0;
    format      ascii;
    class       dictionary;
    note        "mesh decomposition control dictionary";
    object      decomposeParDict;
}
// * * * * * * * * * * * * * * * * * * * * * * * * * * * * * * * * * * * * * //

 
numberOfSubdomains 3;
 
method          scotch;
 
simpleCoeffs
{
    n               (3 1 1);
    delta           0.001;
}
 
hierarchicalCoeffs
{
    n               (1 1 1);
    delta           0.001;
    order           xyz;
}
 
metisCoeffs
{
    processorWeights 
    (
        1
        1
        1
    );
}
 
manualCoeffs
{
    dataFile        "";
}

structuredCoeffs
{

    // Method to use on the 2D subset
    method      scotch;
}
 
distributed     no;
 
roots           
(
);
 
// ************************************************************************* //
